Version 4.1
SHEET 1 3596 1236
WIRE 2176 -1008 2176 -1104
WIRE 2320 -1008 2320 -1104
WIRE 2176 -832 2176 -928
WIRE 2320 -832 2320 -928
WIRE 1312 -736 1200 -736
WIRE 1488 -736 1376 -736
WIRE 2128 -736 1488 -736
WIRE 992 -352 928 -352
WIRE 1200 -352 1200 -736
WIRE 1200 -352 1072 -352
WIRE 1296 -352 1200 -352
WIRE 1488 -352 1488 -736
WIRE 1488 -352 1376 -352
WIRE 1984 -320 1984 -496
WIRE 928 -288 928 -352
WIRE 1808 -272 1680 -272
WIRE 1920 -272 1888 -272
WIRE 1984 -176 1984 -224
WIRE 1296 -112 1296 -144
WIRE 1200 -64 1200 -352
WIRE 1264 -64 1200 -64
WIRE 1680 -32 1680 -272
WIRE 1680 -32 1408 -32
WIRE 1792 -32 1680 -32
WIRE 1984 -32 1984 -96
WIRE 1984 -32 1872 -32
WIRE 2128 -32 2128 -736
WIRE 2128 -32 1984 -32
WIRE 2384 -32 2128 -32
WIRE 848 0 720 0
WIRE 1264 0 928 0
WIRE 2384 0 2384 -32
WIRE 1984 48 1984 -32
WIRE 720 96 720 0
WIRE 2384 128 2384 80
WIRE 1328 160 1328 48
WIRE 1984 256 1984 128
WIRE 720 272 720 176
WIRE 1680 304 1680 -32
WIRE 1808 304 1680 304
WIRE 1920 304 1888 304
WIRE 1984 512 1984 352
FLAG 2176 -832 0
FLAG 2320 -832 0
FLAG 2176 -1104 +VCC2
IOPIN 2176 -1104 Out
FLAG 2320 -1104 -VCC2
IOPIN 2320 -1104 In
FLAG 720 272 0
FLAG 1296 -144 +VCC2
IOPIN 1296 -144 In
FLAG 1296 48 -VCC2
IOPIN 1296 48 Out
FLAG 928 -288 0
FLAG 1984 -496 +VCC2
IOPIN 1984 -496 Out
FLAG 1984 512 -VCC2
IOPIN 1984 512 In
FLAG 2384 128 0
FLAG 1328 160 0
SYMBOL voltage 2176 -1024 R0
WINDOW 123 0 0 Left 0
WINDOW 39 0 0 Left 0
SYMATTR InstName V1
SYMATTR Value 110
SYMBOL voltage 2320 -1024 R0
WINDOW 123 0 0 Left 0
WINDOW 39 0 0 Left 0
SYMATTR InstName V2
SYMATTR Value -110
SYMBOL voltage 720 80 R0
WINDOW 123 24 124 Left 2
WINDOW 39 0 0 Left 0
SYMATTR Value2 AC 10
SYMATTR InstName V3
SYMATTR Value SINE(0 20 2000)
SYMBOL cap 1376 -752 R90
WINDOW 0 0 32 VBottom 2
WINDOW 3 32 32 VTop 2
SYMATTR InstName C1
SYMATTR Value 82p
SYMBOL res 1392 -368 R90
WINDOW 0 0 56 VBottom 2
WINDOW 3 32 56 VTop 2
SYMATTR InstName R1
SYMATTR Value 40k
SYMBOL res 1088 -368 R90
WINDOW 0 0 56 VBottom 2
WINDOW 3 32 56 VTop 2
SYMATTR InstName R2
SYMATTR Value 10k
SYMBOL res 944 -16 R90
WINDOW 0 0 56 VBottom 2
WINDOW 3 32 56 VTop 2
SYMATTR InstName R3
SYMATTR Value 120
SYMBOL OpAmps\\ADHV4702-1 1312 -32 R0
SYMATTR InstName U1
SYMBOL npn 1920 -320 R0
SYMATTR InstName Q1
SYMATTR Value 2N5550
SYMBOL pnp 1920 352 M180
SYMATTR InstName Q2
SYMATTR Value 2N5401
SYMBOL res 1888 -48 R90
WINDOW 0 0 56 VBottom 2
WINDOW 3 32 56 VTop 2
SYMATTR InstName R4
SYMATTR Value 1k
SYMBOL res 1968 -192 R0
SYMATTR InstName R6
SYMATTR Value 5
SYMBOL res 1968 32 R0
SYMATTR InstName R9
SYMATTR Value 5
SYMBOL res 1904 -288 R90
WINDOW 0 0 56 VBottom 2
WINDOW 3 32 56 VTop 2
SYMATTR InstName R5
SYMATTR Value 500
SYMBOL res 1904 288 R90
WINDOW 0 0 56 VBottom 2
WINDOW 3 32 56 VTop 2
SYMATTR InstName R7
SYMATTR Value 500
SYMBOL res 2368 -16 R0
SYMATTR InstName R8
SYMATTR Value 10k
TEXT 968 384 Left 2 !.tran 30m
RECTANGLE Normal 2416 -768 2080 -1216 2
