Version 4.1
SHEET 1 1892 680
WIRE -448 -48 -480 -48
WIRE -320 -48 -448 -48
WIRE -192 -48 -320 -48
WIRE 0 -48 -192 -48
WIRE 128 -48 0 -48
WIRE 160 -48 128 -48
WIRE 288 -48 240 -48
WIRE 368 -48 288 -48
WIRE 672 -48 432 -48
WIRE 752 -48 672 -48
WIRE 912 -48 816 -48
WIRE 960 -48 912 -48
WIRE 1056 -48 1024 -48
WIRE 1152 -48 1136 -48
WIRE 1184 -48 1152 -48
WIRE 1360 -48 1264 -48
WIRE 1456 -48 1360 -48
WIRE 1616 -48 1456 -48
WIRE 1824 -48 1616 -48
WIRE -480 -16 -480 -48
WIRE -320 0 -320 -48
WIRE -192 0 -192 -48
WIRE 1360 0 1360 -48
WIRE 1456 0 1456 -48
WIRE 128 16 128 -48
WIRE 288 16 288 -48
WIRE 912 16 912 -48
WIRE 1152 16 1152 -48
WIRE -480 80 -480 64
WIRE -320 80 -320 64
WIRE -192 80 -192 64
WIRE 0 80 0 -48
WIRE 48 80 0 80
WIRE 384 80 368 80
WIRE 480 80 448 80
WIRE 1616 80 1616 -48
WIRE 672 144 672 -48
WIRE 720 144 672 144
WIRE 816 144 784 144
WIRE 912 144 912 80
WIRE 912 144 896 144
WIRE 1152 144 1152 80
WIRE 1152 144 912 144
WIRE 1824 160 1824 -48
WIRE 48 176 16 176
WIRE 512 176 368 176
WIRE 672 192 672 144
WIRE 1152 240 1152 144
WIRE 1616 240 1616 160
WIRE -64 272 -80 272
WIRE 48 272 16 272
WIRE 368 272 352 272
WIRE 400 272 368 272
WIRE 112 352 112 336
WIRE 208 352 208 336
WIRE 304 352 304 336
WIRE 672 400 672 256
WIRE 1152 400 1152 304
WIRE 1360 400 1360 64
WIRE 1456 400 1456 64
WIRE 112 432 112 416
WIRE 304 432 304 416
WIRE 512 480 512 176
WIRE 1616 480 1616 320
WIRE 1616 480 512 480
WIRE 1616 512 1616 480
WIRE 304 528 304 512
WIRE 1616 624 1616 592
WIRE 1824 624 1824 240
FLAG 112 432 0
FLAG 208 352 0
FLAG -80 272 0
FLAG -480 80 0
FLAG 480 80 0
FLAG -448 -48 IN
FLAG 304 528 0
FLAG 16 176 0
FLAG 672 400 0
FLAG 1152 400 0
FLAG 1456 400 0
FLAG 1360 400 0
FLAG 400 272 0
FLAG 1616 624 0
FLAG 1824 624 0
FLAG -320 80 0
FLAG -192 80 0
SYMBOL cap 96 352 R0
SYMATTR InstName C1
SYMATTR Value 0.01µ
SYMATTR SpiceLine V=100 Irms=0 Rser=0.0821 Lser=506p mfg="Würth Elektronik" pn="885012208112 WCAP-CSGP 1206" type="X7R"
SYMBOL res 32 256 R90
WINDOW 0 0 56 VBottom 2
WINDOW 3 32 56 VTop 2
SYMATTR InstName R1
SYMATTR Value 107K
SYMBOL VOLTAGE -480 -32 R0
WINDOW 0 27 22 Left 2
WINDOW 123 0 0 Left 0
WINDOW 39 0 0 Left 0
SYMATTR InstName V1
SYMATTR Value 24
SYMBOL ind2 144 -32 R270
WINDOW 0 32 56 VTop 2
WINDOW 3 5 56 VBottom 2
SYMATTR InstName L1
SYMATTR Value 10µ
SYMATTR SpiceLine Ipk=0.94 Rser=0.19 Rpar=6292.1 Cpar=715f mfg="Würth Elektronik" pn="74406032100 WE-LQFS 3818"
SYMATTR Type ind
SYMBOL cap 368 -32 R270
WINDOW 0 32 32 VTop 2
WINDOW 3 0 32 VBottom 2
SYMATTR InstName C2
SYMATTR Value 0.1µ
SYMATTR SpiceLine V=100 Irms=0 Rser=0 Lser=0 mfg="Murata" pn="GCM21BR72A104KA37" type="X7R"
SYMBOL cap 384 96 R270
WINDOW 0 32 32 VTop 2
WINDOW 3 0 32 VBottom 2
SYMATTR InstName C4
SYMATTR Value 1µ
SYMBOL cap 288 352 R0
WINDOW 3 29 56 Left 2
WINDOW 0 29 10 Left 2
SYMATTR Value 0.0018µ
SYMATTR InstName C5
SYMATTR SpiceLine V=100 Irms=0 Rser=0 Lser=0 mfg="Murata" pn="GCM155R72A182JA37" type="X7R"
SYMBOL res 288 416 R0
SYMATTR InstName R2
SYMATTR Value 44.2k
SYMBOL LT8365 208 176 R0
SYMATTR InstName U1
SYMBOL cap 752 -32 R270
WINDOW 0 32 32 VTop 2
WINDOW 3 0 32 VBottom 2
SYMATTR InstName C3
SYMATTR Value 0.1µ
SYMATTR SpiceLine V=100 Irms=0 Rser=0 Lser=0 mfg="Murata" pn="GCM21BR72A104KA37" type="X7R"
SYMBOL diode 688 192 M0
SYMATTR InstName D1
SYMATTR Value MBRS1100
SYMBOL res 912 128 R90
WINDOW 0 0 56 VBottom 2
WINDOW 3 32 56 VTop 2
SYMATTR InstName R3
SYMATTR Value 20
SYMBOL diode 784 128 R90
WINDOW 0 0 32 VBottom 2
WINDOW 3 32 32 VTop 2
SYMATTR InstName D2
SYMATTR Value MBRS1100
SYMBOL diode 896 16 R0
SYMATTR InstName D3
SYMATTR Value MBRS1100
SYMBOL res 1152 -64 R90
WINDOW 0 0 56 VBottom 2
WINDOW 3 32 56 VTop 2
SYMATTR InstName R4
SYMATTR Value 20
SYMBOL cap 1136 16 R0
SYMATTR InstName C6
SYMATTR Value 0.22µ
SYMATTR SpiceLine V=100 Irms=1.43 Rser=0.066313 Lser=0 mfg="KEMET" pn="C1812F224K1RAC" type="X7R"
SYMBOL cap 1136 240 R0
SYMATTR InstName C7
SYMATTR Value 0.22µ
SYMATTR SpiceLine V=100 Irms=1.43 Rser=0.066313 Lser=0 mfg="KEMET" pn="C1812F224K1RAC" type="X7R"
SYMBOL res 1280 -64 R90
WINDOW 0 0 56 VBottom 2
WINDOW 3 32 56 VTop 2
SYMATTR InstName R5
SYMATTR Value 47
SYMBOL cap 1344 0 R0
SYMATTR Value 10µ
SYMATTR InstName C8
SYMATTR SpiceLine V=200 Irms=310m Rser=0.7365 Lser=4.499n mfg="Würth Elektronik" pn="860241075003 WCAP-AT1H 10x20" type="Al electrolytic"
SYMBOL cap 1440 0 R0
SYMATTR Value 4.7µ
SYMATTR InstName C9
SYMATTR SpiceLine V=250 Irms=60m Rser=1.1257 Lser=4.219n mfg="Würth Elektronik" pn="860131175004 WCAP-ATET 10x12,5" type="Al electrolytic"
SYMBOL res 1600 64 R0
SYMATTR InstName R6
SYMATTR Value 499k
SYMBOL res 1600 224 R0
SYMATTR InstName R7
SYMATTR Value 499k
SYMBOL res 1600 496 R0
SYMATTR InstName R8
SYMATTR Value 7k32
SYMBOL diode 1024 -32 M270
WINDOW 0 32 32 VTop 2
WINDOW 3 0 32 VBottom 2
SYMATTR InstName D4
SYMATTR Value MBRS1100
SYMBOL res 1808 144 R0
SYMATTR InstName R9
SYMATTR Value 7k4
SYMBOL cap -336 0 R0
SYMATTR InstName C10
SYMATTR Value 10µ
SYMATTR SpiceLine V=50 Irms=0 Rser=0.008 Lser=402p mfg="Würth Elektronik" pn="885012209073 WCAP-CSGP 1210" type="X7R"
SYMBOL cap -208 0 R0
SYMATTR InstName C11
SYMATTR Value 4.7µ
SYMATTR SpiceLine V=50 Irms=0 Rser=0 Lser=0 mfg="Murata" pn="GRM21BZ71H475KE15" type="X7R"
TEXT 112 576 Left 2 !.tran 0.1 startup
