Version 4.1
SHEET 1 2756 1060
WIRE 1584 48 1504 48
WIRE 1680 48 1584 48
WIRE 1712 48 1680 48
WIRE 1840 48 1792 48
WIRE 2096 48 1840 48
WIRE 2256 48 2160 48
WIRE 2352 48 2256 48
WIRE 2480 48 2352 48
WIRE 2576 48 2480 48
WIRE 2688 48 2576 48
WIRE 1504 64 1504 48
WIRE 2256 80 2256 48
WIRE 2352 80 2352 48
WIRE 1680 96 1680 48
WIRE 1840 96 1840 48
WIRE 1504 160 1504 144
WIRE 2480 176 2480 48
WIRE 2576 176 2576 48
WIRE 2688 176 2688 48
WIRE 1584 208 1584 48
WIRE 1600 208 1584 208
WIRE 2256 208 2256 160
WIRE 2256 208 1920 208
WIRE 2352 208 2352 144
WIRE 2352 208 2256 208
WIRE 2256 240 2256 208
WIRE 1680 336 1680 320
WIRE 1840 336 1840 320
WIRE 2256 336 2256 320
WIRE 2480 336 2480 240
WIRE 2576 336 2576 240
WIRE 2688 336 2688 256
WIRE 1680 416 1680 400
WIRE 2256 560 1600 560
WIRE 1600 640 1600 560
WIRE 1712 640 1600 640
WIRE 2048 640 1808 640
WIRE 1584 672 1504 672
WIRE 1680 672 1584 672
WIRE 1712 672 1680 672
WIRE 1840 672 1808 672
WIRE 1936 672 1840 672
WIRE 2048 672 2048 640
WIRE 2048 672 2000 672
WIRE 2256 672 2256 560
WIRE 2352 672 2256 672
WIRE 2480 672 2352 672
WIRE 2576 672 2480 672
WIRE 2688 672 2576 672
WIRE 1504 688 1504 672
WIRE 2048 688 2048 672
WIRE 2256 704 2256 672
WIRE 2352 704 2352 672
WIRE 1680 720 1680 672
WIRE 1840 720 1840 672
WIRE 1504 784 1504 768
WIRE 2048 784 2048 752
WIRE 2480 800 2480 672
WIRE 2576 800 2576 672
WIRE 2688 800 2688 672
WIRE 1584 832 1584 672
WIRE 1600 832 1584 832
WIRE 2256 832 2256 784
WIRE 2256 832 1920 832
WIRE 2352 832 2352 768
WIRE 2352 832 2256 832
WIRE 2256 864 2256 832
WIRE 1680 960 1680 944
WIRE 1840 960 1840 944
WIRE 2256 960 2256 944
WIRE 2480 960 2480 864
WIRE 2576 960 2576 864
WIRE 2688 960 2688 880
WIRE 1680 1040 1680 1024
FLAG 1680 1040 0
FLAG 1840 960 0
FLAG 1504 784 0
FLAG 2256 960 0
FLAG 2480 960 0
FLAG 2576 960 0
FLAG 2688 960 0
FLAG 2048 784 0
FLAG 1680 416 0
FLAG 1840 336 0
FLAG 1504 160 0
FLAG 2256 336 0
FLAG 2480 336 0
FLAG 2576 336 0
FLAG 2688 336 0
SYMBOL PowerProducts\\LT8330 1760 832 R0
SYMATTR InstName U3
SYMBOL cap 1664 960 R0
SYMATTR InstName C11
SYMATTR Value 1µ
SYMBOL voltage 1504 672 R0
WINDOW 123 0 0 Left 0
WINDOW 39 0 0 Left 0
SYMATTR InstName V3
SYMATTR Value 24
SYMBOL cap 2000 656 R90
WINDOW 0 10 61 VBottom 2
WINDOW 3 24 2 VTop 2
SYMATTR InstName C12
SYMATTR Value 1µ
SYMATTR SpiceLine V=50 Irms=0 Rser=0 Lser=0 mfg="Murata" pn="GCM21BR71H105MA03" type="X7R"
SYMBOL diode 2032 688 R0
SYMATTR InstName D3
SYMATTR Value PMEG6010AED
SYMBOL res 2240 688 R0
SYMATTR InstName R7
SYMATTR Value 499k
SYMBOL res 2240 848 R0
SYMATTR InstName R8
SYMATTR Value 10k
SYMBOL cap 2336 704 R0
SYMATTR InstName C13
SYMATTR Value 4.7p
SYMATTR SpiceLine V=50 Irms=0 Rser=0.4971 Lser=498p mfg="Würth Elektronik" pn="885012007049 WCAP-CSGP 0805" type="NP0"
SYMBOL res 2672 784 R0
SYMATTR InstName R9
SYMATTR Value 400
SYMBOL Contrib\\Wurth\\PowerMagnetics\\Coupled\\WE-TDC_HV 1760 656 R0
WINDOW 38 -3 -64 Center 2
SYMATTR InstName L2
SYMBOL cap 2464 800 R0
SYMATTR InstName C14
SYMATTR Value 4.7µ
SYMATTR SpiceLine V=50 Irms=0 Rser=0 Lser=0 mfg="Murata" pn="GRM31CR71H475KA12" type="X7R"
SYMBOL cap 2560 800 R0
SYMATTR InstName C15
SYMATTR Value 10µ
SYMATTR SpiceLine V=50 Irms=0 Rser=0.003 Lser=1.2n mfg="Würth Elektronik" pn="885012214005 WCAP-CSGP 2220" type="X7R"
SYMBOL PowerProducts\\LT8330 1760 208 R0
SYMATTR InstName U4
SYMBOL cap 1664 336 R0
SYMATTR InstName C16
SYMATTR Value 1µ
SYMBOL voltage 1504 48 R0
WINDOW 123 0 0 Left 0
WINDOW 39 0 0 Left 0
SYMATTR InstName V4
SYMATTR Value 24
SYMBOL diode 2096 64 R270
WINDOW 0 32 32 VTop 2
WINDOW 3 0 32 VBottom 2
SYMATTR InstName D4
SYMATTR Value PMEG6010AED
SYMBOL res 2240 64 R0
SYMATTR InstName R10
SYMATTR Value 499k
SYMBOL res 2240 224 R0
SYMATTR InstName R11
SYMATTR Value 18k8
SYMBOL cap 2336 80 R0
SYMATTR InstName C18
SYMATTR Value 4.7p
SYMATTR SpiceLine V=50 Irms=0 Rser=0.4971 Lser=498p mfg="Würth Elektronik" pn="885012007049 WCAP-CSGP 0805" type="NP0"
SYMBOL res 2672 160 R0
SYMATTR InstName R12
SYMATTR Value 600
SYMBOL cap 2464 176 R0
SYMATTR InstName C19
SYMATTR Value 4.7µ
SYMATTR SpiceLine V=50 Irms=0 Rser=0 Lser=0 mfg="Murata" pn="GRM31CR71H475KA12" type="X7R"
SYMBOL cap 2560 176 R0
SYMATTR InstName C20
SYMATTR Value 10µ
SYMATTR SpiceLine V=50 Irms=0 Rser=0.003 Lser=1.2n mfg="Würth Elektronik" pn="885012214005 WCAP-CSGP 2220" type="X7R"
SYMBOL ind 1696 64 R270
WINDOW 0 32 56 VTop 2
WINDOW 3 5 56 VBottom 2
SYMATTR InstName L1
SYMATTR Value 6.8µ
SYMATTR SpiceLine Ipk=1 Rser=0.25 Rpar=4000 Cpar=1.9p mfg="Würth Elektronik" pn="74479887268A WE-PMI 1008"
TEXT 1240 -120 Left 2 !.tran 0.01
