Version 4.1
SHEET 1 1092 680
WIRE 96 -128 96 -160
WIRE 224 -128 224 -160
WIRE 384 -128 384 -160
WIRE 512 -128 512 -160
WIRE 288 32 96 32
WIRE 96 128 96 32
WIRE 144 128 96 128
WIRE 288 144 288 32
WIRE 288 144 208 144
WIRE 480 144 288 144
WIRE -128 160 -400 160
WIRE 0 160 -48 160
WIRE 144 160 0 160
WIRE 0 176 0 160
WIRE -400 192 -400 160
WIRE 1024 272 832 272
WIRE -400 288 -400 272
WIRE 0 288 0 256
WIRE 1024 304 1024 272
WIRE 480 336 432 336
WIRE 432 384 432 336
WIRE 592 416 592 384
WIRE 1024 416 1024 384
FLAG 96 -128 0
FLAG 224 -128 0
FLAG 224 -240 VSS
FLAG 96 -240 VCC
FLAG 176 112 VCC
FLAG 176 176 VSS
FLAG 0 288 0
FLAG -400 288 0
FLAG 432 384 0
FLAG 592 416 0
FLAG 384 -128 0
FLAG 384 -240 VDD
FLAG 592 80 VDD
FLAG 512 -128 0
FLAG 512 -240 VREF
FLAG 832 352 VREF
FLAG 1024 416 0
SYMBOL OpAmps\\ADA4522 176 80 R0
SYMATTR InstName U1
SYMBOL voltage 96 -256 R0
SYMATTR InstName V1
SYMATTR Value 21
SYMBOL voltage 224 -256 R0
SYMATTR InstName V2
SYMATTR Value -21
SYMBOL res -16 160 R0
SYMATTR InstName R1
SYMATTR Value 49.9k
SYMBOL res -32 144 R90
WINDOW 0 0 56 VBottom 2
WINDOW 3 32 56 VTop 2
SYMATTR InstName R2
SYMATTR Value 49.9k
SYMBOL voltage -400 176 R0
WINDOW 123 0 0 Left 0
WINDOW 39 0 0 Left 0
SYMATTR InstName V3
SYMATTR Value SINE(0 25 100 0 0 0 100)
SYMBOL OpAmps\\AD8475 704 240 R0
SYMATTR InstName U2
SYMBOL voltage 384 -256 R0
SYMATTR InstName V4
SYMATTR Value 5
SYMBOL voltage 512 -256 R0
SYMATTR InstName V5
SYMATTR Value 2.5
SYMBOL res 1008 288 R0
SYMATTR InstName R3
SYMATTR Value 10k
TEXT -432 440 Left 2 !.tran 0.05
