Version 4.1
SHEET 1 880 680
WIRE -304 -48 -304 -64
WIRE -160 -48 -160 -64
WIRE 32 80 -288 80
WIRE -288 144 -288 80
WIRE 480 208 384 208
WIRE 32 272 -16 272
WIRE -288 336 -288 224
WIRE -16 336 -16 272
WIRE 144 336 144 320
FLAG -160 -48 0
FLAG 144 16 VDD
FLAG -160 -144 VDD
FLAG 144 336 0
FLAG -16 336 0
FLAG -288 336 0
FLAG -304 -48 0
FLAG -304 -144 VREF
FLAG 384 288 VREF
SYMBOL OpAmps\\AD8475 256 176 R0
SYMATTR InstName U1
SYMBOL voltage -160 -160 R0
WINDOW 123 0 0 Left 0
WINDOW 39 0 0 Left 0
SYMATTR InstName V1
SYMATTR Value 5
SYMBOL voltage -288 128 R0
WINDOW 123 0 0 Left 0
WINDOW 39 0 0 Left 0
SYMATTR InstName V2
SYMATTR Value SINE(0 10 100 0 0 0 10)
SYMBOL voltage -304 -160 R0
WINDOW 123 0 0 Left 0
WINDOW 39 0 0 Left 0
SYMATTR InstName V3
SYMATTR Value 5
