Version 4.1
SHEET 1 880 804
WIRE 240 -80 -240 -80
WIRE 272 -80 240 -80
WIRE 400 -80 352 -80
WIRE 640 -80 400 -80
WIRE 240 -64 240 -80
WIRE 400 -64 400 -80
WIRE 288 64 272 64
WIRE -240 144 -240 -80
WIRE 240 144 240 16
WIRE 272 144 272 64
WIRE 368 144 368 64
WIRE 400 144 400 16
WIRE 640 144 640 -80
WIRE 496 256 496 176
WIRE 496 256 384 256
WIRE -240 272 -240 224
WIRE 640 272 640 224
WIRE 320 448 320 320
WIRE 336 448 320 448
WIRE 496 448 496 256
WIRE 496 448 416 448
WIRE 144 512 144 176
WIRE 496 512 496 448
WIRE 496 512 144 512
WIRE 496 544 496 512
WIRE 496 624 496 608
WIRE 496 784 496 704
FLAG 640 272 0
FLAG -240 272 0
FLAG 496 784 0
SYMBOL voltage -240 128 R0
WINDOW 123 0 0 Left 0
WINDOW 39 0 0 Left 0
SYMATTR InstName V1
SYMATTR Value 50
SYMBOL res 368 -96 R90
WINDOW 0 0 56 VBottom 2
WINDOW 3 32 56 VTop 2
SYMATTR InstName R1
SYMATTR Value 10
SYMBOL res 624 128 R0
SYMATTR InstName R2
SYMATTR Value 10k
SYMBOL res 432 432 R90
WINDOW 0 0 56 VBottom 2
WINDOW 3 32 56 VTop 2
SYMATTR InstName R3
SYMATTR Value 10k
SYMBOL voltage 400 176 R270
WINDOW 0 32 56 VTop 2
WINDOW 3 -32 56 VBottom 2
WINDOW 123 0 0 Left 0
WINDOW 39 0 0 Left 0
SYMATTR InstName V2
SYMATTR Value -15
SYMBOL voltage 240 176 R90
WINDOW 0 -32 56 VBottom 2
WINDOW 3 32 56 VTop 2
WINDOW 123 0 0 Left 0
WINDOW 39 0 0 Left 0
SYMATTR InstName V3
SYMATTR Value 15
SYMBOL res 384 48 R90
WINDOW 0 0 56 VBottom 2
WINDOW 3 32 56 VTop 2
SYMATTR InstName R5
SYMATTR Value 499
SYMBOL res 480 608 R0
SYMATTR InstName R4
SYMATTR Value 1Meg
SYMBOL OpAmps\\AD8224 320 176 M90
SYMATTR InstName U1
SYMBOL cap 480 544 R0
SYMATTR InstName C1
SYMATTR Value 0.001µ
SYMATTR SpiceLine V=2K Irms=0 Rser=0.3435 Lser=392p mfg="Würth Elektronik" pn="885342209009 WCAP-CSMH 1210" type="X7R"
SYMBOL res 384 -80 R0
SYMATTR InstName R6
SYMATTR Value 1Meg
SYMBOL res 224 -80 R0
SYMATTR InstName R7
SYMATTR Value 1Meg
TEXT -16 632 Left 2 !.tran 0.2
